ID LINEAR,QUAD1N
SOL 101
CEND
LOAD = 1
SPC = 1
DISPLACEMENT(PRINT) = ALL
FORCE = ALL
STRESS = ALL
BEGIN BULK
$234567><234567><234567><234567><234567><234567><234567><234567><234567>
GRID    1               0.0     0.0     0.0
GRID    2               2.5     0.0     0.0
GRID    3               2.5     2.5     0.0
GRID    4               0.0     2.5     0.0     
GRID    5               5.0     0.0     0.0     
GRID    6               5.0     2.5     0.0     
GRID    7               0.0     5.0     0.0     
GRID    8               2.5     5.0     0.0     
GRID    9               5.0     5.0     0.0     
$234567><234567><234567><234567><234567><234567><234567><234567><234567>
PSHELL  1       1       0.1
CQUAD4  101     1       1       2       3       4
CQUAD4  102     1       2       5       6       3
CQUAD4  103     1       3       8       7       4
CQUAD4  104     1       3       6       9       8
$234567><234567><234567><234567><234567><234567><234567><234567><234567>
MAT1    1       29.0+6          0.3     0.29
$234567><234567><234567><234567><234567><234567><234567><234567><234567>
SPC1    1       123     1       2       5       4       7
$234567><234567><234567><234567><234567><234567><234567><234567><234567>
FORCE   1       8               1.0+3   0.0     0.0     1.0
$234567><234567><234567><234567><234567><234567><234567><234567><234567>
ENDDATA
$234567>
